FoamFile { version 2.0; format ascii; class dictionary; object fvSolution; }
solvers { p { solver PCG; tolerance 1e-06; relTol 0.05; } U { solver smoothSolver; tolerance 1e-05; relTol 0; } }
PISO { nCorrectors 2; nNonOrthogonalCorrectors 0; }
